*load regulation
*
.inc AE01005127_01.cir
*
.param VSOURCE=5
.param ILOAD=300m
*
.param RADJ=56.2K
.param RREF=18K
.param REN=100K
*
.dc I1 0 {ILOAD} 100n
.backanno
.op
